33

C 1.22642999999999991 2.287385 0.166428999999999994
C 1.23837299999999995 0.904815000000000036 0.0277860000000000017
C 0.0288519999999999992 0.21743599999999999 -0.0998430000000000012
C -1.19340200000000007 0.896011000000000002 -0.111676999999999998
C -1.19995300000000005 2.27577300000000005 0.0315020000000000022
C 0.00729099999999999974 2.97584399999999993 0.178152000000000005
O 0.0509640000000000024 -1.15181599999999995 -0.369651999999999981
N -0.0590410000000000032 4.3937879999999998 0.396701999999999999
C 0.820788999999999991 5.36647400000000019 -0.146145999999999998
O 1.83235900000000007 5.03311300000000017 -0.743532999999999999
C 0.438441999999999998 6.8037270000000003 0.110810000000000006
H 2.1808510000000001 2.82239500000000021 0.248186999999999991
H 2.19231599999999993 0.366275000000000017 0.00967699999999999984
H -2.13367599999999991 0.350262999999999991 -0.245633999999999991
H -2.16005199999999986 2.80644399999999994 0.0265020000000000013
C -0.0683799999999999963 -2.03467600000000015 0.676027000000000045
H -0.950035999999999992 4.73206400000000027 0.689000999999999975
H -0.482644999999999991 7.06852500000000017 -0.425285999999999997
H 1.22612999999999994 7.49015200000000014 -0.226933999999999997
H 0.273087999999999997 6.99183299999999974 1.18027400000000005
C -0.0481019999999999989 -3.44690399999999997 0.200742000000000004
O -0.140215000000000006 -1.6389959999999999 1.81814199999999992
C 1.17724600000000001 -4.10907999999999962 0.125464999999999993
C -1.22296300000000002 -4.13538199999999989 -0.142208000000000001
C -1.16384599999999994 -5.48152699999999982 -0.536900999999999962
C 0.0648849999999999982 -6.12365099999999973 -0.593114999999999948
C 1.23308200000000001 -5.44119300000000017 -0.265041000000000027
H 2.09924599999999995 -3.57233400000000012 0.376356999999999997
O -2.39793099999999981 -3.44220499999999996 -0.0801250000000000018
H -2.07843100000000014 -6.02762499999999957 -0.796478000000000019
H 0.114267999999999995 -7.17414000000000041 -0.898974000000000051
H 2.19841299999999995 -5.95558799999999966 -0.309273999999999993
H -3.10435099999999986 -4.04720700000000022 -0.270930999999999977
