23

C 1.89542499999999992 2.09626100000000015 -0.65309600000000001
C 1.63054900000000003 0.764986999999999973 -0.354976000000000014
C 0.543055999999999983 0.429620999999999975 0.454504999999999992
C -0.274604000000000015 1.44119299999999995 0.959922999999999971
C -0.00521100000000000035 2.77235599999999982 0.66101399999999999
C 1.07874300000000001 3.10154599999999991 -0.145290000000000002
C 0.267176999999999998 -1.00408499999999989 0.776980000000000004
C -0.408793000000000017 -1.71975499999999992 -0.403048999999999991
C -1.86218299999999992 -1.27804899999999999 -0.542636000000000007
N -0.262550999999999979 -3.18919700000000006 -0.236312999999999995
H 2.74914799999999993 2.35341500000000003 -1.288435
H 2.27359100000000014 -0.0278300000000000006 -0.754383000000000026
H -1.13149600000000006 1.18526599999999993 1.5936459999999999
H -0.648955999999999977 3.56180299999999983 1.0621179999999999
H 1.28966399999999992 4.14982200000000034 -0.379657999999999995
H -0.365590000000000026 -1.08012700000000006 1.68497600000000003
H 1.22364300000000004 -1.50478299999999998 1.03227500000000005
H 0.145450999999999997 -1.46167399999999992 -1.34023000000000003
H -2.47123900000000019 -1.57821699999999998 0.321745999999999976
H -2.3329629999999999 -1.69918900000000006 -1.44075200000000003
H -0.703458000000000028 -3.65206700000000017 -1.00326300000000002
H -0.701953000000000049 -3.47766900000000012 0.613535000000000053
H -1.92744899999999997 -0.183630999999999989 -0.618635000000000046
