20

C 1.11429200000000006 -0.67897200000000002 -0.147357999999999989
C 1.2336609999999999 -2.05999299999999996 -0.201604000000000005
C 0.089259000000000005 -2.86038799999999993 -0.0935669999999999974
C -1.17437400000000003 -2.27972000000000019 0.0686260000000000064
C -1.28675600000000001 -0.898101000000000038 0.122115000000000001
C -0.145965000000000011 -0.0872929999999999956 0.0148389999999999998
O 0.288160000000000027 -4.2141099999999998 -0.15601000000000001
N -0.345671000000000006 1.3314109999999999 0.0798699999999999966
C 0.609111999999999987 2.37061499999999992 -0.00145600000000000005
O 1.79932500000000006 2.13132400000000022 -0.146853000000000011
C 0.0542790000000000009 3.77257299999999995 0.103307999999999997
H 2.02047899999999991 -0.063184000000000004 -0.233553000000000011
H 2.22011499999999984 -2.52090799999999993 -0.328602000000000005
H -2.07299599999999984 -2.90150100000000011 0.153583999999999998
H -2.28346699999999991 -0.457118999999999998 0.249568000000000012
H -0.558108999999999966 -4.63503500000000024 -0.0718369999999999981
H -1.29395400000000005 1.61520799999999998 0.197352
H -0.659997999999999974 3.98301099999999986 -0.704107000000000038
H 0.854651999999999967 4.52184399999999975 0.0358499999999999999
H -0.46204400000000001 3.93033700000000019 1.05983399999999994
