21

C 2.25594968335247836 -0.301629854455565782 0.253331700499764001
C 0.948940118289594348 2.03311825748305397 -0.470279873782056435
C 2.98761913343450081 0.83007338568718303 -0.0245629324195211947
C 2.32231037426461695 2.00207104665762037 -0.388422313950925302
C -3.50193013039918899 0.516911983714071654 -0.283121079822195698
C 0.860414035847658298 -0.294582390155704865 0.176887572519073305
C 0.197859090261959525 0.880797020807715825 -0.187544462219233793
O -1.16471390210369741 -1.61471881989036681 0.438604648263379859
O -1.77084224729868911 -1.12845367916158068 0.270098263593754273
O 0.860153175519510427 -2.6074186716373009 0.824528391760896318
C 0.053852898639203492 -1.5257739351483679 0.478689928113821717
C -2.06728095245495336 0.000681840550107390376 -0.0619498844736896537
O -1.18267647301249901 1.05079121881844162 -0.308805078508932351
H 0.224453172497031006 -3.34633057809990486 0.997500192508949834
H 2.75680227235826525 -1.22016881383677189 0.537168989313657641
H 0.423407266167472096 2.93542910303940285 -0.751129880298051167
H 4.06681637270717911 0.813952879480258962 0.0377570942447150726
H 2.89190315825083699 2.89721218087868815 -0.608888567241548717
H -3.6140955618843269 0.869475810797038062 -1.30435855615917706
H -4.20780526322165471 -0.285609999588597951 -0.0962619463956779636
H -3.70473622121010226 1.34397201406838707 0.391157794452753504
