12

C 0.164099999999999996 -1.37260000000000004 -0.00020000000000000001
C -1.10660000000000003 -0.828400000000000025 0.000100000000000000005
C -1.27069999999999994 0.544200000000000017 -0
C -0.164099999999999996 1.37260000000000004 0
C 1.10660000000000003 0.828400000000000025 0.000599999999999999947
C 1.27069999999999994 -0.544200000000000017 -0.000699999999999999993
H 0.292300000000000004 -2.44490000000000007 0.00440000000000000027
H -1.97120000000000006 -1.47560000000000002 0
H -2.26350000000000007 0.96930000000000005 -0.00050000000000000001
H -0.292300000000000004 2.44490000000000007 -0.000800000000000000038
H 1.97120000000000006 1.47560000000000002 -0.000100000000000000005
H 2.26350000000000007 -0.96930000000000005 0.00020000000000000001
