609

C -10.0028383108268759 0.275980150878026576 -5.20083721801163623
C -10.0028383108268759 2.05937015788844135 -3.41743721100082709
C -9.11113830731882501 1.16767015438039068 -4.30913721450358622
C -11.7862283178224736 2.05937015788844135 -5.20083721801163623
C -11.7862283178224736 3.8427701648992505 -3.41743721100082709
C -10.0028383108268759 3.8427701648992505 -5.20083721801163623
C -10.0028383108268759 5.62616017192659879 -3.41743721100082709
C -9.11113830731882501 2.9510701613911996 -2.525747207497405
C -10.8945283143144227 2.9510701613911996 -4.30913721450358622
C -10.8945283143144227 4.73446016840267259 -2.525747207497405
C -9.11113830731882501 4.73446016840267259 -4.30913721450358622
C -10.0028383108268759 3.8427701648992505 -1.63404720398935432
C -10.0028383108268759 5.62616017192659879 0.149352803018808933
C -9.11113830731882501 4.73446016840267259 -0.742347200486595749
C -6.43604829681517732 -3.29080986314002244 -5.20083721801163623
C -6.43604829681517732 -1.507419856133841 -3.41743721100082709
C -5.54434829330712731 -2.39911985963659946 -4.30913721450358622
C -8.21943830381077589 -1.507419856133841 -5.20083721801163623
C -8.21943830381077589 0.275980150878026576 -3.41743721100082709
C -6.43604829681517732 0.275980150878026576 -5.20083721801163623
C -6.43604829681517732 2.05937015788844135 -3.41743721100082709
C -5.54434829330712731 -0.615719852625790431 -2.525747207497405
C -7.32773830030272499 -0.615719852625790431 -4.30913721450358622
C -7.32773830030272499 1.16767015438039068 -2.525747207497405
C -5.54434829330712731 1.16767015438039068 -4.30913721450358622
C -6.43604829681517732 0.275980150878026576 -1.63404720398935432
C -6.43604829681517732 2.05937015788844135 0.149352803018808933
C -5.54434829330712731 1.16767015438039068 -0.742347200486595749
C -8.21943830381077589 2.05937015788844135 -5.20083721801163623
C -8.21943830381077589 3.8427701648992505 -3.41743721100082709
C -6.43604829681517732 3.8427701648992505 -5.20083721801163623
C -6.43604829681517732 5.62616017192659879 -3.41743721100082709
C -5.54434829330712731 2.9510701613911996 -2.525747207497405
C -7.32773830030272499 2.9510701613911996 -4.30913721450358622
C -7.32773830030272499 4.73446016840267259 -2.525747207497405
C -5.54434829330712731 4.73446016840267259 -4.30913721450358622
C -8.21943830381077589 2.05937015788844135 -1.63404720398935432
C -8.21943830381077589 3.8427701648992505 0.149352803018808933
C -6.43604829681517732 3.8427701648992505 -1.63404720398935432
C -6.43604829681517732 5.62616017192659879 0.149352803018808933
C -5.54434829330712731 2.9510701613911996 1.04104280652487735
C -7.32773830030272499 2.9510701613911996 -0.742347200486595749
C -7.32773830030272499 4.73446016840267259 1.04104280652487735
C -5.54434829330712731 4.73446016840267259 -0.742347200486595749
C -6.43604829681517732 3.8427701648992505 1.93274281002763604
C -6.43604829681517732 5.62616017192659879 3.7161428170384454
C -5.54434829330712731 4.73446016840267259 2.82444281353568671
C -2.86924828278826771 -6.85759987715701325 -5.20083721801163623
C -2.86925828278760386 -5.07420987015083202 -3.41743721100082709
C -1.97755827927955341 -5.96590987366946557 -4.30913721450358622
C -4.65264828979907641 -5.07420987015083202 -5.20083721801163623
C -4.65264828979907641 -3.29080986314002244 -3.41743721100082709
C -2.86925828278760386 -3.29080986314002244 -5.20083721801163623
C -2.86925828278760386 -1.507419856133841 -3.41743721100082709
C -1.97755827927955341 -4.18250986664807289 -2.525747207497405
C -3.7609482862910264 -4.18250986664807289 -4.30913721450358622
C -3.7609482862910264 -2.39911985963659946 -2.525747207497405
C -1.97755827927955341 -2.39911985963659946 -4.30913721450358622
C -2.86925828278760386 -3.29080986314002244 -1.63404720398935432
C -2.86925828278760386 -1.507419856133841 0.149352803018808933
C -1.97755827927955341 -2.39911985963659946 -0.742347200486595749
C -4.65264828979907641 -1.507419856133841 -5.20083721801163623
C -4.65264828979907641 0.275980150878026576 -3.41743721100082709
C -2.86925828278760386 0.275980150878026576 -5.20083721801163623
C -2.86925828278760386 2.05937015788844135 -3.41743721100082709
C -1.97755827927955341 -0.615719852625790431 -2.525747207497405
C -3.7609482862910264 -0.615719852625790431 -4.30913721450358622
C -3.7609482862910264 1.16767015438039068 -2.525747207497405
C -1.97755827927955341 1.16767015438039068 -4.30913721450358622
C -4.65264828979907641 -1.507419856133841 -1.63404720398935432
C -4.65264828979907641 0.275980150878026576 0.149352803018808933
C -2.86925828278760386 0.275980150878026576 -1.63404720398935432
C -2.86925828278760386 2.05937015788844135 0.149352803018808933
C -1.97755827927955341 -0.615719852625790431 1.04104280652487735
C -3.7609482862910264 -0.615719852625790431 -0.742347200486595749
C -3.7609482862910264 1.16767015438039068 1.04104280652487735
C -1.97755827927955341 1.16767015438039068 -0.742347200486595749
C -2.86925828278760386 0.275980150878026576 1.93274281002763604
C -2.86925828278760386 2.05937015788844135 3.7161428170384454
C -1.97755827927955341 1.16767015438039068 2.82444281353568671
C -4.65264828979907641 2.05937015788844135 -5.20083721801163623
C -4.65264828979907641 3.8427701648992505 -3.41743721100082709
C -2.86925828278760386 3.8427701648992505 -5.20083721801163623
C -2.86925828278760386 5.62616017192659879 -3.41743721100082709
C -1.97755827927955341 2.9510701613911996 -2.525747207497405
C -3.7609482862910264 2.9510701613911996 -4.30913721450358622
C -3.7609482862910264 4.73446016840267259 -2.525747207497405
C -1.97755827927955341 4.73446016840267259 -4.30913721450358622
C -4.65264828979907641 2.05937015788844135 -1.63404720398935432
C -4.65264828979907641 3.8427701648992505 0.149352803018808933
C -2.86925828278760386 3.8427701648992505 -1.63404720398935432
C -2.86925828278760386 5.62616017192659879 0.149352803018808933
C -1.97755827927955341 2.9510701613911996 1.04104280652487735
C -3.7609482862910264 2.9510701613911996 -0.742347200486595749
C -3.7609482862910264 4.73446016840267259 1.04104280652487735
C -1.97755827927955341 4.73446016840267259 -0.742347200486595749
C -4.65264828979907641 2.05937015788844135 1.93274281002763604
C -4.65264828979907641 3.8427701648992505 3.7161428170384454
C -2.86925828278760386 3.8427701648992505 1.93274281002763604
C -2.86925828278760386 5.62616017192659879 3.7161428170384454
C -1.97755827927955341 2.9510701613911996 4.60783282054186749
C -3.7609482862910264 2.9510701613911996 2.82444281353568671
C -3.7609482862910264 4.73446016840267259 4.60783282054186749
C -1.97755827927955341 4.73446016840267259 2.82444281353568671
C -2.86925828278760386 3.84276016489991434 5.49953282403933397
C -2.86925828278760386 5.62616017192659879 7.28293283105543576
C -1.97755827927955341 4.73446016840267259 6.39123282754738575
C 0.697541731234014528 -10.4243898911687118 -5.20083721801163623
C 0.697541731234014528 -8.64099988417311415 -3.41743721100082709
C 1.58923173473743695 -9.53269988768116505 -4.30913721450358622
C -1.08585827577679472 -8.64099988417311415 -5.20083721801163623
C -1.08585827577679472 -6.85759987715701325 -3.41743721100082709
C 0.697541731234014528 -6.85759987715701325 -5.20083721801163623
C 0.697531731234678376 -5.07420987015083202 -3.41743721100082709
C 1.58923173473743695 -7.74929988066506326 -2.525747207497405
C -0.194158272272448418 -7.74929988066506326 -4.30913721450358622
C -0.194158272272448418 -5.96590987366946557 -2.525747207497405
C 1.58923173473743695 -5.96590987366946557 -4.30913721450358622
C 0.697531731234678376 -6.85760987717751647 -1.63404720398935432
C 0.697531731234678376 -5.07420987015083202 0.149352803018808933
C 1.58923173473743695 -5.96590987366946557 -0.742347200486595749
C -1.08585827577679472 -5.07420987015083202 -5.20083721801163623
C -1.08585827577679472 -3.29080986314002244 -3.41743721100082709
C 0.697531731234678376 -3.29080986314002244 -5.20083721801163623
C 0.697531731234678376 -1.507419856133841 -3.41743721100082709
C 1.58923173473743695 -4.18250986664807289 -2.525747207497405
C -0.194158272272448418 -4.18250986664807289 -4.30913721450358622
C -0.194158272272448418 -2.39911985963659946 -2.525747207497405
C 1.58923173473743695 -2.39911985963659946 -4.30913721450358622
C -1.08585827577679472 -5.07420987015083202 -1.63404720398935432
C -1.08585827577679472 -3.29080986314002244 0.149352803018808933
C 0.697531731234678376 -3.29080986314002244 -1.63404720398935432
C 0.697531731234678376 -1.507419856133841 0.149352803018808933
C 1.58923173473743695 -4.18250986664807289 1.04104280652487735
C -0.194158272272448418 -4.18250986664807289 -0.742347200486595749
C -0.194158272272448418 -2.39911985963659946 1.04104280652487735
C 1.58923173473743695 -2.39911985963659946 -0.742347200486595749
C 0.697531731234678376 -3.29081986313935815 1.93274281002763604
C 0.697531731234678376 -1.507419856133841 3.7161428170384454
C 1.58923173473743695 -2.39911985963659946 2.82444281353568671
C -1.08585827577679472 -1.507419856133841 -5.20083721801163623
C -1.08585827577679472 0.275980150878026576 -3.41743721100082709
C 0.697531731234678376 0.275980150878026576 -5.20083721801163623
C 0.697531731234678376 2.05937015788844135 -3.41743721100082709
C 1.58923173473743695 -0.615719852625790431 -2.525747207497405
C -0.194158272272448418 -0.615719852625790431 -4.30913721450358622
C -0.194158272272448418 1.16767015438039068 -2.525747207497405
C 1.58923173473743695 1.16767015438039068 -4.30913721450358622
C -1.08585827577679472 -1.507419856133841 -1.63404720398935432
C -1.08585827577679472 0.275980150878026576 0.149352803018808933
C 0.697531731234678376 0.275980150878026576 -1.63404720398935432
C 0.697531731234678376 2.05937015788844135 0.149352803018808933
C 1.58923173473743695 -0.615719852625790431 1.04104280652487735
C -0.194158272272448418 -0.615719852625790431 -0.742347200486595749
C -0.194158272272448418 1.16767015438039068 1.04104280652487735
C 1.58923173473743695 1.16767015438039068 -0.742347200486595749
C -1.08585827577679472 -1.507419856133841 1.93274281002763604
C -1.08585827577679472 0.275970150877632103 3.7161428170384454
C 0.697531731234678376 0.275980150878026576 1.93274281002763604
C 0.697531731234678376 2.05937015788844135 3.7161428170384454
C 1.58923173473743695 -0.615719852625790431 4.60783282054186749
C -0.194158272272448418 -0.615719852625790431 2.82444281353568671
C -0.194158272272448418 1.16767015438039068 4.60783282054186749
C 1.58923173473743695 1.16767015438039068 2.82444281353568671
C 0.697531731234678376 0.275970150877632103 5.49953282403933397
C 0.697531731234678376 2.05937015788844135 7.28293283105543576
C 1.58923173473743695 1.16767015438039068 6.39123282754738575
C -1.08585827577679472 2.05937015788844135 -5.20083721801163623
C -1.08585827577679472 3.8427701648992505 -3.41743721100082709
C 0.697531731234678376 3.8427701648992505 -5.20083721801163623
C 0.697531731234678376 5.62616017192659879 -3.41743721100082709
C 1.58923173473743695 2.9510701613911996 -2.525747207497405
C -0.194158272272448418 2.9510701613911996 -4.30913721450358622
C -0.194158272272448418 4.73446016840267259 -2.525747207497405
C 1.58923173473743695 4.73446016840267259 -4.30913721450358622
C -1.08585827577679472 2.05937015788844135 -1.63404720398935432
C -1.08585827577679472 3.8427701648992505 0.149352803018808933
C 0.697531731234678376 3.8427701648992505 -1.63404720398935432
C 0.697531731234678376 5.62616017192659879 0.149352803018808933
C 1.58923173473743695 2.9510701613911996 1.04104280652487735
C -0.194158272272448418 2.9510701613911996 -0.742347200486595749
C -0.194158272272448418 4.73446016840267259 1.04104280652487735
C 1.58923173473743695 4.73446016840267259 -0.742347200486595749
C -1.08585827577679472 2.05937015788844135 1.93274281002763604
C -1.08585827577679472 3.8427701648992505 3.7161428170384454
C 0.697531731234678376 3.8427701648992505 1.93274281002763604
C 0.697531731234678376 5.62616017192659879 3.7161428170384454
C 1.58923173473743695 2.9510701613911996 4.60783282054186749
C -0.194158272272448418 2.9510701613911996 2.82444281353568671
C -0.194158272272448418 4.73446016840267259 4.60783282054186749
C 1.58923173473743695 4.73446016840267259 2.82444281353568671
C -1.08585827577679472 2.05937015788844135 5.49953282403933397
C -1.08585827577679472 3.84276016489991434 7.28293283105543576
C 0.697531731234678376 3.84276016489991434 5.49953282403933397
C 0.697531731234678376 5.62616017192659879 7.28293283105543576
C 1.58923173473743695 2.9510701613911996 8.17462283454298344
C -0.194158272272448418 2.9510701613911996 6.39123282754738575
C -0.194158272272448418 4.73446016840267259 8.17462283454298344
C 1.58923173473743695 4.73446016840267259 6.39123282754738575
C 0.697531731234678376 3.84276016489991434 9.06632283805103256
C 0.697531731234678376 5.62616017192659879 10.8497228450671344
C 1.58923173473743695 4.73446016840267259 9.95802284155908346
C 2.48093173824019608 -12.2077898981848119 -5.20083721801163623
C 2.48093173824019608 -10.4243998911892142 -3.41743721100082709
C 4.26433174525100522 -10.4243898911687118 -5.20083721801163623
C 4.26433174525100522 -8.64099988417311415 -3.41743721100082709
C 5.15602174875971908 -11.3160898946767627 -2.525747207497405
C 3.37263174174824609 -11.3160898946767627 -4.30913721450358622
C 3.37263174174824609 -9.53269988768116505 -2.525747207497405
C 5.15602174875971908 -9.53269988768116505 -4.30913721450358622
C 4.26433174525100522 -12.2077898981848119 -3.41743721100082709
C 4.26433174525100522 -10.4243998911892142 -1.63404720398935432
C 4.26433174525100522 -8.64099988417311415 0.149352803018808933
C 5.15602174875971908 -9.53269988768116505 -0.742347200486595749
C 2.48093173824019608 -8.64099988417311415 -5.20083721801163623
C 2.48093173824019608 -6.85759987715701325 -3.41743721100082709
C 4.26433174525100522 -6.85759987715701325 -5.20083721801163623
C 4.26433174525100522 -5.07420987015083202 -3.41743721100082709
C 5.15602174875971908 -7.74929988066506326 -2.525747207497405
C 3.37263174174824609 -7.74929988066506326 -4.30913721450358622
C 3.37263174174824609 -5.96590987366946557 -2.525747207497405
C 5.15602174875971908 -5.96590987366946557 -4.30913721450358622
C 2.48093173824019608 -8.64099988417311415 -1.63404720398935432
C 2.48093173824019608 -6.85760987717751647 0.149352803018808933
C 4.26433174525100522 -6.85760987717751647 -1.63404720398935432
C 4.26432174525166907 -5.07420987015083202 0.149352803018808933
C 5.15602174875971908 -7.74929988066506326 1.04104280652487735
C 3.37263174174824609 -7.74929988066506326 -0.742347200486595749
C 3.37263174174824609 -5.96590987366946557 1.04104280652487735
C 5.15602174875971908 -5.96590987366946557 -0.742347200486595749
C 4.26432174525166907 -6.85760987717751647 1.93274281002763604
C 4.26432174525166907 -5.07420987015083202 3.7161428170384454
C 5.15602174875971908 -5.96590987366946557 2.82444281353568671
C 2.48093173824019608 -5.07420987015083202 -5.20083721801163623
C 2.48093173824019608 -3.29080986314002244 -3.41743721100082709
C 4.26433174525100522 -3.29080986314002244 -5.20083721801163623
C 4.26432174525166907 -1.507419856133841 -3.41743721100082709
C 5.15602174875971908 -4.18250986664807289 -2.525747207497405
C 3.37263174174824609 -4.18250986664807289 -4.30913721450358622
C 3.37263174174824609 -2.39911985963659946 -2.525747207497405
C 5.15602174875971908 -2.39911985963659946 -4.30913721450358622
C 2.48093173824019608 -5.07420987015083202 -1.63404720398935432
C 2.48093173824019608 -3.29080986314002244 0.149352803018808933
C 4.26432174525166907 -3.29080986314002244 -1.63404720398935432
C 4.26432174525166907 -1.507419856133841 0.149352803018808933
C 5.15602174875971908 -4.18250986664807289 1.04104280652487735
C 3.37263174174824609 -4.18250986664807289 -0.742347200486595749
C 3.37263174174824609 -2.39911985963659946 1.04104280652487735
C 5.15602174875971908 -2.39911985963659946 -0.742347200486595749
C 2.48093173824019608 -5.07420987015083202 1.93274281002763604
C 2.48093173824019608 -3.29081986313935815 3.7161428170384454
C 4.26432174525166907 -3.29081986313935815 1.93274281002763604
C 4.26432174525166907 -1.507419856133841 3.7161428170384454
C 5.15602174875971908 -4.18250986664807289 4.60783282054186749
C 3.37263174174824609 -4.18250986664807289 2.82444281353568671
C 3.37263174174824609 -2.39911985963659946 4.60783282054186749
C 5.15602174875971908 -2.39911985963659946 2.82444281353568671
C 4.26432174525166907 -3.29081986313935815 5.49953282403933397
C 4.26432174525166907 -1.507419856133841 7.28293283105543576
C 5.15602174875971908 -2.39911985963659946 6.39123282754738575
C 2.48093173824019608 -1.507419856133841 -5.20083721801163623
C 2.48093173824019608 0.275980150878026576 -3.41743721100082709
C 4.26432174525166907 0.275980150878026576 -5.20083721801163623
C 4.26432174525166907 2.05937015788844135 -3.41743721100082709
C 5.15602174875971908 -0.615719852625790431 -2.525747207497405
C 3.37263174174824609 -0.615719852625790431 -4.30913721450358622
C 3.37263174174824609 1.16767015438039068 -2.525747207497405
C 5.15602174875971908 1.16767015438039068 -4.30913721450358622
C 2.48093173824019608 -1.507419856133841 -1.63404720398935432
C 2.48093173824019608 0.275980150878026576 0.149352803018808933
C 4.26432174525166907 0.275980150878026576 -1.63404720398935432
C 4.26432174525166907 2.05937015788844135 0.149352803018808933
C 5.15602174875971908 -0.615719852625790431 1.04104280652487735
C 3.37263174174824609 -0.615719852625790431 -0.742347200486595749
C 3.37263174174824609 1.16767015438039068 1.04104280652487735
C 5.15602174875971908 1.16767015438039068 -0.742347200486595749
C 2.48093173824019608 -1.507419856133841 1.93274281002763604
C 2.48093173824019608 0.275970150877632103 3.7161428170384454
C 4.26432174525166907 0.275980150878026576 1.93274281002763604
C 4.26432174525166907 2.05937015788844135 3.7161428170384454
C 5.15602174875971908 -0.615719852625790431 4.60783282054186749
C 3.37263174174824609 -0.615719852625790431 2.82444281353568671
C 3.37263174174824609 1.16767015438039068 4.60783282054186749
C 5.15602174875971908 1.16767015438039068 2.82444281353568671
C 2.48093173824019608 -1.507419856133841 5.49953282403933397
C 2.48093173824019608 0.275970150877632103 7.28293283105543576
C 4.26432174525166907 0.275970150877632103 5.49953282403933397
C 4.26432174525166907 2.05937015788844135 7.28293283105543576
C 5.15602174875971908 -0.615719852625790431 8.17462283454298344
C 3.37263174174824609 -0.615719852625790431 6.39123282754738575
C 3.37263174174824609 1.16767015438039068 8.17462283454298344
C 5.15602174875971908 1.16767015438039068 6.39123282754738575
C 4.26432174525166907 0.275970150877632103 9.06632283805103256
C 4.26432174525166907 2.05937015788844135 10.8497228450671344
C 5.15602174875971908 1.16767015438039068 9.95802284155908346
C 2.48093173824019608 2.05937015788844135 -5.20083721801163623
C 2.48093173824019608 3.8427701648992505 -3.41743721100082709
C 4.26432174525166907 3.8427701648992505 -5.20083721801163623
C 4.26432174525166907 5.62616017192659879 -3.41743721100082709
C 5.15602174875971908 2.9510701613911996 -2.525747207497405
C 3.37263174174824609 2.9510701613911996 -4.30913721450358622
C 3.37263174174824609 4.73446016840267259 -2.525747207497405
C 5.15602174875971908 4.73446016840267259 -4.30913721450358622
C 2.48093173824019608 2.05937015788844135 -1.63404720398935432
C 2.48093173824019608 3.8427701648992505 0.149352803018808933
C 4.26432174525166907 3.8427701648992505 -1.63404720398935432
C 4.26432174525166907 5.62616017192659879 0.149352803018808933
C 5.15602174875971908 2.9510701613911996 1.04104280652487735
C 3.37263174174824609 2.9510701613911996 -0.742347200486595749
C 3.37263174174824609 4.73446016840267259 1.04104280652487735
C 5.15602174875971908 4.73446016840267259 -0.742347200486595749
C 2.48093173824019608 2.05937015788844135 1.93274281002763604
C 2.48093173824019608 3.8427701648992505 3.7161428170384454
C 4.26432174525166907 3.8427701648992505 1.93274281002763604
C 4.26432174525166907 5.62616017192659879 3.7161428170384454
C 5.15602174875971908 2.9510701613911996 4.60783282054186749
C 3.37263174174824609 2.9510701613911996 2.82444281353568671
C 3.37263174174824609 4.73446016840267259 4.60783282054186749
C 5.15602174875971908 4.73446016840267259 2.82444281353568671
C 2.48093173824019608 2.05937015788844135 5.49953282403933397
C 2.48093173824019608 3.84276016489991434 7.28293283105543576
C 4.26432174525166907 3.84276016489991434 5.49953282403933397
C 4.26432174525166907 5.62616017192659879 7.28293283105543576
C 5.15602174875971908 2.9510701613911996 8.17462283454298344
C 3.37263174174824609 2.9510701613911996 6.39123282754738575
C 3.37263174174824609 4.73446016840267259 8.17462283454298344
C 5.15602174875971908 4.73446016840267259 6.39123282754738575
C 2.48093173824019608 2.05937015788844135 9.06632283805103256
C 2.48093173824019608 3.84276016489991434 10.8497228450671344
C 4.26432174525166907 3.84276016489991434 9.06632283805103256
C 4.26432174525166907 5.62616017192659879 10.8497228450671344
C 5.15602174875971908 2.9510701613911996 11.7414128486076006
C 3.37263174174824609 2.9510701613911996 9.95802284155908346
C 3.37263174174824609 4.73446016840267259 11.7414128486076006
C 5.15602174875971908 4.73446016840267259 9.95802284155908346
H -10.6205983132807624 0.893750153303731198 -5.81859722044964744
H -10.6206083132483471 -0.341779851550458702 -4.58307721558420944
H -9.38507830837299117 -0.341789851550323986 -5.81860722041723299
H -10.6206083132483471 1.44161015546101434 -2.79966720857406459
H -11.1684583154010024 1.44161015546101434 -5.81859722044964744
H -12.4039883202763601 2.67713016031586815 -5.81860722041723299
H -12.4039983202439448 1.44161015546101434 -4.58307721558420944
H -12.4039883202763601 3.2250101624718237 -2.79966720857406459
H -12.4039983202439448 4.46053016732667729 -4.03519721342825477
H -9.38507830837299117 3.2250101624718237 -5.81860722041723299
H -10.6206083132483471 4.46054016732601344 -5.81859722044964744
H -10.6206083132483471 6.24392017432756763 -4.03519721342825477
H -9.38507830837299117 6.24393017434806996 -2.79967720857340074
H -11.512288316768311 5.35222017081951673 -1.90798720506997799
H -8.49336830489735384 5.35222017081951673 -4.92690721693564093
H -10.6206083132483471 3.2250101624718237 -1.01627720156259138
H -10.6206083132483471 6.24392017432756763 -0.468417199409541629
H -9.38507830837299117 6.24393017434806996 0.767112805448881718
H -10.6205983132807624 5.00840016947800404 0.76712280544821787
H -8.49336830489735384 5.35222017081951673 -1.3601172029133588
H -5.81827829439370614 -3.90856986556744923 -5.81859722044964744
H -7.05380829921614527 -2.67303986071325905 -5.81859722044964744
H -7.05381829923664849 -3.90856986556744923 -4.58307721558420944
H -7.05381829923664849 -2.12517985856126801 -2.79966720857406459
H -8.83719830626466241 -0.889649853701786175 -5.81860722041723299
H -8.83720830623224707 -2.12517985856126801 -4.58307721558420944
H -7.60167830140980794 -2.12518985856060416 -5.81859722044964744
H -8.83720830623224707 -0.341779851550458702 -2.79966720857406459
H -7.05381829923664849 0.893750153303731198 -5.81859722044964744
H -5.81828829436129258 -0.341779851550458702 -5.81860722041723299
H -7.05381829923664849 -0.341779851550458702 -1.01627720156259138
H -7.05381829923664849 1.44161015546101434 0.76712280544821787
H -8.83719830626466241 2.67713016031586815 -5.81859722044964744
H -7.60167830140980794 1.44161015546101434 -5.81859722044964744
H -5.81828829436129258 3.2250101624718237 -5.81860722041723299
H -7.05381829923664849 4.46054016732601344 -5.81859722044964744
H -7.05381829923664849 6.24392017432756763 -4.03519721342825477
H -5.81828829436129258 6.24393017434806996 -2.79967720857340074
H -7.94549830275661062 5.35222017081951673 -1.90798720506997799
H -4.9265782908750726 5.35222017081951673 -4.92690721693564093
H -8.83719830626466241 1.44161015546101434 -1.01628720156192753
H -8.83720830623224707 3.2250101624718237 0.76712280544821787
H -7.05381829923664849 6.24392017432756763 -0.468407199409147157
H -5.81828829436129258 6.24393017434806996 0.767112805448881718
H -7.94549830275661062 5.35222017081951673 1.65880280895230414
H -4.9265782908750726 5.35222017081951673 -1.3601172029133588
H -7.05381829923664849 3.2250101624718237 2.5505128124543992
H -7.05381829923664849 6.24392017432756763 3.09837281461168246
H -5.81828829436129258 6.24393017434806996 4.33390281946587219
H -7.05380829921614527 5.00840016947800404 4.33391281946520746
H -4.9265782908750726 5.35222017081951673 2.206672811103632
H -2.25147828035621256 -7.47535987961089798 -5.81859722044964744
H -3.4870082852156945 -6.23982987473554207 -5.81860722041723299
H -3.48701828521503066 -7.47536987957848442 -4.58307721558420944
H -3.48702828521436681 -5.69196987256238263 -2.79966720857406459
H -4.0348782873670217 -5.69196987256238263 -5.81859722044964744
H -5.27040829222650409 -4.45644986772340435 -5.81860722041723299
H -5.27041829222584024 -5.69196987256238263 -4.58307721558420944
H -5.27041829222584024 -3.90856986556744923 -2.79966720857406459
H -2.25149828036017707 -3.90856986556744923 -5.81860722041723299
H -3.48702828521436681 -2.67303986071325905 -5.81859722044964744
H -3.48702828521436681 -3.90856986556744923 -1.01627720156259138
H -3.48702828521436681 -2.12517985856126801 0.76712280544821787
H -4.03488828736635785 -2.12517985856126801 -5.81859722044964744
H -5.27040829222650409 -0.889659853706413983 -5.81859722044964744
H -3.48702828521436681 0.893750153303731198 -5.81859722044964744
H -2.25149828036017707 -0.341779851550458702 -5.81860722041723299
H -5.27040829222650409 -2.12517985856126801 -1.01628720156192753
H -5.27041829222584024 -0.341779851550458702 0.76712280544821787
H -3.48702828521436681 -0.341779851550458702 2.5505128124543992
H -3.48702828521436681 1.44161015546101434 4.33391281946520746
H -4.03488828736635785 1.44161015546101434 -5.81859722044964744
H -5.27040829222650409 2.67713016031586815 -5.81859722044964744
H -3.48702828521436681 4.46054016732601344 -5.81859722044964744
H -2.25149828036017707 3.2250101624718237 -5.81860722041723299
H -3.48702828521436681 6.24392017432756763 -4.03519721342825477
H -2.25149828036017707 6.24393017434806996 -2.79967720857340074
H -4.37870828871845408 5.35222017081951673 -1.90798720506997799
H -1.35978827685279025 5.35222017081951673 -4.92690721693564093
H -3.48702828521436681 6.24392017432756763 -0.468407199409147157
H -2.25149828036017707 6.24393017434806996 0.767112805448881718
H -4.37870828871845408 5.35222017081951673 1.65880280895230414
H -1.35978827685279025 5.35222017081951673 -1.3601172029133588
H -5.27040829222650409 1.44161015546101434 2.55050281245506305
H -5.27041829222584024 3.2250101624718237 4.33391281946520746
H -3.48702828521436681 6.24392017432756763 3.09838281461101817
H -2.25149828036017707 6.24393017434806996 4.33390281946587219
H -4.37870828871845408 5.35223017084001995 5.2256028229739222
H -1.35978827685279025 5.35222017081951673 2.206672811103632
H -3.48702828521436681 3.22499016246785963 6.11729282649322048
H -3.48701828521503066 6.24392017432756763 6.66516282863396459
H -2.25149828036017707 6.24393017434806996 7.90069283350932228
H -3.48701828521503066 5.00840016947800404 7.90070283347690694
H -1.3597982768521264 5.35222017081951673 5.7734728251464178
H 0.0797817288044708889 -9.80661988874724067 -5.81859722044964744
H 0.0797717288046056183 -11.042159893590183 -4.58307721558420944
H 1.31531173366077758 -11.0421498936225966 -5.81860722041723299
H 0.0797817288044708889 -9.25876988659458533 -2.79966720857406459
H -0.468088273348973294 -9.258759886574083 -5.81859722044964744
H -1.70361827820422151 -8.02323988171922764 -5.81860722041723299
H -1.70362827820355767 -9.258759886574083 -4.58307721558420944
H -1.70362827820355767 -7.47535987961089798 -2.79966720857406459
H 1.31531173366077758 -7.47535987961089798 -5.81859722044964744
H 0.0797817288044708889 -6.2398398747560444 -5.81860722041723299
H 0.07976172880421116 -7.47537987959898764 -1.01628720156192753
H 0.07976172880421116 -5.69196987256238263 0.76712280544821787
H -0.468098273348838578 -5.69196987256238263 -5.81859722044964744
H -1.70361827820422151 -4.45644986772340435 -5.81859722044964744
H 1.3152917336621055 -3.90856986556744923 -5.81860722041723299
H 0.07976172880421116 -2.67303986071325905 -5.81859722044964744
H -1.70361827820422151 -5.69196987256238263 -1.01628720156192753
H -1.70362827820355767 -3.90856986556744923 0.76712280544821787
H 0.07976172880421116 -3.90858986557141286 2.55050281245506305
H 0.07976172880421116 -2.12517985856126801 4.33391281946520746
H -0.468098273348838578 -2.12517985856126801 -5.81859722044964744
H -1.70361827820422151 -0.889659853706413983 -5.81859722044964744
H 0.07976172880421116 0.893750153303731198 -5.81859722044964744
H 1.3152917336621055 -0.341779851550458702 -5.81860722041723299
H -1.70361827820422151 -2.12517985856126801 2.55050281245506305
H -1.70361827820422151 -0.341799851550189271 4.33391281946520746
H 0.07976172880421116 -0.341799851550189271 6.11729282649322048
H 0.07976172880421116 1.44161015546101434 7.90070283347690694
H -1.70361827820422151 2.67713016031586815 -5.81859722044964744
H -0.468098273348838578 1.44161015546101434 -5.81859722044964744
H 1.3152917336621055 3.2250101624718237 -5.81860722041723299
H 0.07976172880421116 4.46054016732601344 -5.81859722044964744
H 0.07976172880421116 6.24392017432756763 -4.03519721342825477
H 1.3152917336621055 6.24393017434806996 -2.79967720857340074
H -0.811918274701462939 5.35222017081951673 -1.90798720506997799
H 2.20700173716420034 5.35222017081951673 -4.92690721693564093
H 0.07976172880421116 6.24392017432756763 -0.468407199409147157
H 1.3152917336621055 6.24393017434806996 0.767112805448881718
H -0.811918274701462939 5.35222017081951673 1.65880280895230414
H 2.20700173716420034 5.35222017081951673 -1.3601172029133588
H 0.07976172880421116 6.24392017432756763 3.09838281461101817
H 1.3152917336621055 6.24393017434806996 4.33390281946587219
H -0.811918274701462939 5.35223017084001995 5.2256028229739222
H 2.20700173716420034 5.35222017081951673 2.206672811103632
H -1.70361827820422151 1.44161015546101434 6.11729282649322048
H -1.70361827820422151 3.22499016246785963 7.90070283347690694
H 0.07976172880421116 6.24392017432756763 6.66517282865446781
H 1.3152917336621055 6.24393017434806996 7.90069283350932228
H -0.811918274701462939 5.35223017084001995 8.79238283699686995
H 2.20699173716486374 5.35222017081951673 5.7734728251464178
H 0.07976172880421116 3.22499016246785963 9.68408284050491908
H 0.0797717288046056183 6.24392017432756763 10.2319528426456632
H 1.3152917336621055 6.24393017434806996 11.4674828475210209
H 0.0797717288046056183 5.00840016947800404 11.4674928474886055
H 2.20699173716486374 5.35222017081951673 9.34026283915811462
H 3.09870174067225079 -12.8255499006386984 -5.81860722041723299
H 1.86316173581343292 -11.5900298957838448 -5.81859722044964744
H 1.86317173581276885 -12.825559900606283 -4.58307721558420944
H 1.86317173581276885 -11.0421698936106853 -2.79966720857406459
H 4.88210174768305993 -11.0421498936225966 -5.81859722044964744
H 3.64657174282357843 -9.806629888767743 -5.81860722041723299
H 5.77378175118185499 -10.6983198922552916 -3.14351720992416794
H 5.77379175120235733 -11.9338498971306475 -1.90798720506997799
H 5.77379175120235733 -8.91493988522727676 -4.92689721693630478
H 5.77378175118185499 -10.1504698901026362 -3.69136721207682328
H 4.88210174768305993 -12.8255499006386984 -4.03519721342825477
H 3.64657174282357843 -12.825559900606283 -2.79967720857340074
H 3.64657174282357843 -11.0421698936106853 -1.01627720156259138
H 3.64657174282357843 -9.25876988659458533 0.76712280544821787
H 5.77378175118185499 -8.91493988522727676 -1.36010720291402265
H 5.77378175118185499 -10.1504698901026362 -0.124577198057715929
H 1.86317173581276885 -8.02323988171922764 -5.81859722044964744
H 3.09869174067291464 -9.258759886574083 -5.81859722044964744
H 3.64657174282357843 -6.23982987473554207 -5.81859722044964744
H 4.88209174767843113 -7.47535987961089798 -5.81860722041723299
H 5.77378175118185499 -7.13152987824359208 -3.14351720992416794
H 5.77379175120235733 -8.36705988311894977 -1.90798720506997799
H 5.77379175120235733 -5.34814987121557994 -4.92689721693630478
H 5.77378175118185499 -6.58367987609093674 -3.69136721207682328
H 1.86317173581276885 -9.258759886574083 -1.01628720156192753
H 1.86317173581276885 -7.47537987959898764 0.76712280544821787
H 5.77378175118185499 -7.13152987824359208 0.423272804095468524
H 5.77379175120235733 -8.36705988311894977 1.65880280895230414
H 5.77378175118185499 -5.34813987124799439 -1.36010720291402265
H 5.77378175118185499 -6.58367987609093674 -0.124577198057715929
H 3.64655174282490613 -7.47537987959898764 2.55050281245506305
H 3.64655174282490613 -5.69196987256238263 4.33391281946520746
H 5.77378175118185499 -5.34814987121557994 2.20668281110296771
H 5.77378175118185499 -6.58366987607043264 3.4422028159631135
H 3.09869174067291464 -5.69196987256238263 -5.81859722044964744
H 1.86317173581276885 -4.45644986772340435 -5.81859722044964744
H 3.64657174282357843 -2.67303986071325905 -5.81859722044964744
H 4.88209174767843113 -3.90856986556744923 -5.81860722041723299
H 5.77378175118185499 -3.56473986421601774 -3.14351720992416794
H 5.77379175120235733 -4.80026986907549968 -1.90797720506535007
H 5.77379175120235733 -1.78134985720983652 -4.92689721693630478
H 5.77378175118185499 -3.01688986206336285 -3.69136721207682328
H 5.77378175118185499 -3.56473986421601774 0.423272804095468524
H 5.77379175120235733 -4.80026986907549968 1.65880280895230414
H 5.77379175120235733 -1.78135985720917267 -1.36010720291402265
H 5.77378175118185499 -3.01688986206336285 -0.124587198057581214
H 1.86317173581276885 -5.69196987256238263 2.55050281245506305
H 1.86317173581276885 -3.90858986557141286 4.33391281946520746
H 5.77378175118185499 -3.56473986421601774 3.99006281811510499
H 5.77379175120235733 -4.80026986907549968 5.22559282296929517
H 5.77378175118185499 -1.78135985720917267 2.20668281110296771
H 5.77378175118185499 -3.0168798620640267 3.4422028159631135
H 3.64655174282490613 -3.90858986557141286 6.11729282649322048
H 3.64655174282490613 -2.12517985856126801 7.90070283347690694
H 5.77378175118185499 -1.78135985720917267 5.7734728251464178
H 5.77378175118185499 -3.0168798620640267 7.00899283000127049
H 1.86317173581276885 -0.889659853706413983 -5.81859722044964744
H 3.09869174067291464 -2.12517985856126801 -5.81859722044964744
H 4.88208174767909586 -0.341779851550458702 -5.81860722041723299
H 3.64655174282490613 0.893750153303731198 -5.81859722044964744
H 5.77378175118185499 0.00204014980107022773 -3.14351720992416794
H 5.77379175120235733 -1.23347985505321733 -1.90798720506997799
H 5.77379175120235733 1.78543015681310968 -4.92689721693630478
H 5.77378175118185499 0.549900151953627847 -3.69137721207615943
H 5.77378175118185499 0.00204014980107022773 0.423272804095468524
H 5.77379175120235733 -1.23347985505321733 1.65880280895230414
H 5.77379175120235733 1.78543015681310968 -1.36010720291402265
H 5.77378175118185499 0.549900151953627847 -0.124587198057581214
H 5.77378175118185499 0.00205014980111013897 3.99006281811510499
H 5.77379175120235733 -1.23347985505321733 5.22559282296929517
H 5.77379175120235733 1.78543015681310968 2.20668281110296771
H 5.77378175118185499 0.549900151953627847 3.4422028159631135
H 1.86317173581276885 -2.12517985856126801 6.11729282649322048
H 1.86317173581276885 -0.341799851550189271 7.90070283347690694
H 5.77378175118185499 0.00205014980111013897 7.55685283212151226
H 5.77379175120235733 -1.23347985505321733 8.79238283699686995
H 5.77378175118185499 1.78543015681310968 5.7734728251464178
H 5.77378175118185499 0.549910151952963888 7.00899283000127049
H 3.64655174282490613 -0.341799851550189271 9.68408284050491908
H 3.64655174282490613 1.44161015546101434 11.4674928474886055
H 5.77378175118185499 1.78543015681310968 9.34026283915811462
H 5.77378175118185499 0.549910151952963888 10.57578284401297
H 1.86317173581276885 2.67713016031586815 -5.81859722044964744
H 3.09869174067291464 1.44161015546101434 -5.81859722044964744
H 3.64655174282490613 4.46054016732601344 -5.81859722044964744
H 4.88208174767909586 3.2250101624718237 -5.81860722041723299
H 3.64655174282490613 6.24392017432756763 -4.03519721342825477
H 4.88208174767909586 6.24393017434806996 -2.79967720857340074
H 5.77378175118185499 3.56883016381862683 -3.14351720992416794
H 5.77379175120235733 2.33331015896377325 -1.90798720506997799
H 2.7548717393208193 5.35222017081951673 -1.90798720506997799
H 5.77379175120235733 5.35222017081951673 -4.92689721693630478
H 5.77378175118185499 4.11669016597590964 -3.69137721207615943
H 3.64655174282490613 6.24392017432756763 -0.468407199409147157
H 4.88208174767909586 6.24393017434806996 0.767112805448881718
H 5.77378175118185499 3.56883016381862683 0.423272804095468524
H 5.77379175120235733 2.33331015896377325 1.65880280895230414
H 2.7548717393208193 5.35222017081951673 1.65880280895230414
H 5.77379175120235733 5.35222017081951673 -1.36010720291402265
H 5.77378175118185499 4.11669016597590964 -0.124587198057581214
H 3.64655174282490613 6.24392017432756763 3.09838281461101817
H 4.88208174767909586 6.24393017434806996 4.33390281946587219
H 5.77378175118185499 3.56884016382325475 3.99006281811510499
H 5.77379175120235733 2.33331015896377325 5.22559282296929517
H 2.7548717393208193 5.35223017084001995 5.2256028229739222
H 5.77379175120235733 5.35222017081951673 2.20668281110296771
H 5.77378175118185499 4.11669016597590964 3.4422028159631135
H 3.64655174282490613 6.24392017432756763 6.66517282865446781
H 4.88208174767909586 6.24393017434806996 7.90069283350932228
H 5.77378175118185499 3.56884016382325475 7.55685283212151226
H 5.77379175120235733 2.33331015896377325 8.79238283699686995
H 2.7548717393208193 5.35223017084001995 8.79238283699686995
H 5.77378175118185499 5.35222017081951673 5.7734728251464178
H 5.77378175118185499 4.1167001659752458 7.00899283000127049
H 1.86317173581276885 1.44161015546101434 9.68408284050491908
H 1.86317173581276885 3.22499016246785963 11.4674928474886055
H 3.64655174282490613 6.24392017432756763 10.2319628426661655
H 4.88208174767909586 6.24393017434806996 11.4674828475210209
H 5.77378175118185499 3.56883016381862683 11.12364284613321
H 5.77379175120235733 2.33331015896377325 12.3591828510290718
H 4.53826174632700052 3.56884016382325475 12.3591828510290718
H 3.99040174417500948 4.1167001659752458 12.3591728510085677
H 2.75486173932148315 5.35222017081951673 12.3591728510085677
H 5.77378175118185499 5.35222017081951673 9.34026283915811462
H 5.77378175118185499 4.1167001659752458 10.57578284401297
