102

C 0.0829160000000000036 -0.0798480000000000023 -0.0706269999999999953
C 0.961064999999999947 0.831964000000000037 0.799995000000000012
C -0.793637999999999955 -0.958431000000000033 0.831230000000000024
C -0.821965999999999974 0.779016000000000042 -0.963963000000000014
H -1.40426399999999996 -1.62903700000000007 0.213101000000000013
C -1.69841400000000009 -0.0815590000000000065 1.71965799999999991
H -0.155842000000000008 -1.599024 1.45372699999999999
C -1.72662899999999997 1.68222699999999992 -0.10227
H -1.43289700000000009 0.129588000000000009 -1.603993
H -0.204657000000000006 1.39033899999999999 -1.634598
C 0.0836569999999999953 1.73562100000000008 1.68947800000000004
C -2.57242399999999982 -0.961480000000000001 2.62643400000000016
C -2.59986600000000001 0.811702999999999952 0.83318800000000004
C -2.6521720000000002 2.52708600000000017 -0.998796000000000017
C -0.837589999999999946 2.59357000000000015 0.793435000000000001
C 0.956057000000000046 2.66827600000000009 2.55498499999999984
C -0.819726999999999983 0.850746000000000002 2.58765799999999979
H -3.19137400000000016 -1.631189 2.014621
C -3.46808400000000017 -0.0900600000000000012 3.5214310000000002
H -1.93725299999999989 -1.60720700000000005 3.24734299999999987
C -3.50826400000000005 1.71067900000000006 1.71591800000000005
H -3.23911199999999999 0.162161 0.216192999999999996
C -3.51851499999999984 3.47750100000000018 -0.138945000000000013
H -3.29542499999999983 1.87101600000000001 -1.6004449999999999
H -2.05280199999999979 3.10662899999999986 -1.71369499999999997
C -1.728653 3.53708100000000014 1.65517500000000006
H -0.200542999999999999 3.20895699999999984 0.139671999999999991
C 0.0692549999999999971 3.53900799999999993 3.48048599999999997
H 1.57384400000000002 3.30941799999999997 1.91211500000000001
H 1.65556400000000004 2.07256600000000013 3.15658200000000022
N -1.70449800000000007 1.74550300000000003 3.50771899999999981
H -0.173750999999999989 0.221859000000000001 3.21955599999999986
C -4.44000099999999964 4.31310699999999958 -1.03790000000000004
C -2.52581200000000017 4.40730600000000017 0.628774999999999973
C -4.40036000000000005 2.60060799999999981 0.81881499999999996
C -0.857044000000000028 4.41524699999999992 2.5745079999999998
C -0.72499199999999997 2.56125999999999987 4.39474199999999993
C 0.937900999999999985 4.46708999999999978 4.34049900000000033
C -2.58319499999999991 0.833061000000000051 4.39612200000000009
C -4.34286300000000036 -0.977195999999999954 4.42779699999999998
C -4.37295400000000001 0.801236999999999977 2.6358410000000001
C -5.28570799999999963 5.24284600000000012 -0.164181999999999995
H -5.09418500000000041 3.66063399999999994 -1.63027499999999992
H -3.853132 4.90053699999999992 -1.7557529999999999
C -3.12582599999999999 5.67124000000000006 1.18508499999999994
H -1.80298800000000004 4.79332400000000014 -0.108365000000000003
C -1.76428199999999991 5.41605500000000006 3.34582699999999988
H -0.188931999999999989 5.01266700000000043 1.93279899999999993
C 0.0319489999999999982 5.30481200000000008 5.24810999999999961
H 1.54275699999999993 5.12664200000000037 3.70515799999999995
H 1.6437790000000001 3.88511000000000006 4.94699199999999983
H -0.000554000000000000022 1.85645400000000005 4.83383300000000027
C -1.36248199999999997 3.19546699999999984 5.59935500000000008
H -1.92970799999999998 0.198931999999999998 5.01496000000000031
C -3.45105899999999988 1.71033799999999991 5.32701799999999981
H -4.96587099999999992 -1.64519299999999991 3.81924600000000014
C -5.23674399999999984 -0.107636999999999997 5.31975700000000007
H -3.71123199999999986 -1.62092400000000003 5.05336599999999958
C -5.40347500000000025 3.41553199999999979 1.67752400000000002
H -5.00159800000000043 1.93258799999999997 0.181304999999999994
C -5.31105499999999964 1.66101300000000007 3.52440299999999995
H -5.95969999999999978 5.8150170000000001 -0.815154999999999963
C -4.35343199999999975 6.26511300000000038 0.543417000000000039
C -6.18855999999999984 4.38846999999999987 0.779687000000000019
C -4.73384300000000025 4.20382199999999973 2.73535199999999978
C -6.2489650000000001 2.46595599999999981 2.55237399999999992
H -5.84952999999999967 -0.750681000000000043 5.96177400000000013
C -6.14947999999999961 0.752113000000000032 4.43902000000000019
C -4.35545100000000041 0.795135000000000036 6.19244199999999978
C -4.38266299999999998 2.601159 4.43150699999999986
C -2.52171199999999995 2.51961099999999982 6.27584500000000034
H 0.662621000000000016 5.98451100000000036 5.83600999999999992
C -0.700143999999999989 4.37955299999999959 6.24518099999999965
C -0.905347000000000013 6.18839600000000001 4.38072700000000026
C -2.90301000000000009 4.73167999999999989 4.08596800000000027
C -2.39572999999999992 6.39432500000000026 2.2974730000000001
H -4.93407199999999957 6.82672300000000032 1.28433799999999998
H -4.01058200000000031 6.9938779999999996 -0.202154
H -3.08126500000000014 7.08610600000000002 2.80328299999999997
H -1.610039 7.00955499999999976 1.84097500000000003
H -1.542848 6.79487500000000022 5.03770100000000021
H -0.270704 6.90528999999999993 3.84097899999999992
H -1.43483500000000008 4.96608300000000025 6.80890199999999979
H 0.0257749999999999993 3.99951800000000013 6.97495599999999971
H -3.12186800000000009 3.26153400000000016 6.81675400000000042
H -2.09984200000000021 1.84842499999999998 7.03538100000000011
H -4.98768999999999973 1.40530200000000005 6.85040199999999988
H -3.73882899999999996 0.166233999999999993 6.84800300000000028
H -6.81045500000000015 1.35919999999999996 5.07034800000000008
H -6.79828999999999972 0.102592000000000003 3.83763299999999985
H -6.99024100000000015 3.02770800000000007 3.13838099999999987
H -6.81798099999999963 1.775312 1.91624599999999989
H -6.81718299999999999 5.06013900000000039 1.37927
H -6.88132699999999975 3.80717699999999981 0.155970999999999999
C -3.60987200000000019 3.55659999999999998 3.47750499999999985
H -5.03392499999999998 3.18986800000000015 5.09668200000000038
H -5.29451599999999978 5.00121699999999958 3.2221700000000002
H -3.40666100000000016 5.2794439999999998 4.87901499999999988
H -4.99127499999999991 0.148388999999999993 2.00108499999999978
H 0.720416999999999974 -0.715246999999999966 -0.695695999999999981
H 1.60736199999999996 1.44375300000000006 0.157699000000000006
H 1.62573400000000001 0.219015999999999988 1.42209099999999999
