26

C 3.16809500000000011 -0.303130999999999984 -0.298121999999999998
C 1.93718699999999999 0.637265999999999999 -0.241476999999999997
C 0.66769400000000001 -0.142969000000000013 0.197322999999999998
C -0.653155000000000041 0.580585000000000018 -0.209857999999999989
C -1.85782099999999994 -0.371688000000000018 0.0862799999999999956
C -3.21429600000000004 0.32530199999999998 -0.161188999999999999
O 3.00889600000000002 -1.1420809999999999 -1.41847300000000009
O 0.748168999999999973 -0.365427999999999975 1.59260099999999993
O -1.83826899999999993 -1.50800200000000006 -0.756846000000000019
O -4.28865799999999986 -0.393106000000000011 0.377207000000000015
H 3.25179000000000018 -0.909803000000000028 0.625229999999999952
H 4.09854200000000013 0.291277999999999981 -0.390376000000000001
H 0.673664000000000041 -1.14091600000000004 -0.320133999999999974
O -0.824180000000000024 1.83544400000000008 0.38908100000000001
H -1.79318 -0.72344799999999998 1.15212899999999996
H -3.36576899999999979 0.520726000000000022 -1.24084599999999989
H -3.26781100000000002 1.28995100000000007 0.37364799999999998
H 3.81315399999999993 -1.63578200000000007 -1.50038000000000005
H -0.0931609999999999938 -0.730737999999999999 1.85129999999999995
H -0.937918999999999947 -1.81716799999999989 -0.783089000000000035
H -4.34511100000000017 -1.21693699999999994 -0.0907710000000000045
O 2.21409099999999981 1.76160600000000001 0.553081000000000045
H 1.75425900000000001 1.09954400000000008 -1.24012699999999998
H -0.627353000000000049 0.837903999999999982 -1.29429400000000006
H -0.591241000000000017 1.76002299999999989 1.30641600000000002
H 2.36238400000000004 1.46156700000000006 1.44168500000000011
