9

H 1.62654399999999999 -0.0376929999999999973 0.84561200000000003
C 1.0112000000000001 -0.0452919999999999989 -0.062604999999999994
H 1.32526100000000002 0.803088000000000024 -0.684698000000000029
H 1.25012400000000001 -0.961175000000000002 -0.618886999999999965
C -0.462075999999999987 0.030627999999999999 0.294698999999999989
H -0.758001999999999954 -0.82632300000000003 0.931560000000000055
H -0.68222499999999997 0.953690000000000038 0.866555999999999993
O -1.198129 0.018093999999999999 -0.907244999999999968
H -2.11269600000000013 0.0649819999999999981 -0.664992999999999945
