13

C 1.50518078255232135 -0.465828559621850158 0.177883412653067452
C 0.483974769718644615 0.588395192007996948 -0.312932775856898548
C -0.940802830573542082 0.285454172528365746 0.192763894438568867
O 2.49567137543273354 -0.165239802064413716 0.821122066669607298
H 0.805226894659728964 1.56976799597277328 0.0284127991076218375
H 0.488069492109329595 0.594985442490838845 -1.40199464830485265
H -1.26492049407728757 -0.69701174470761329 -0.138251909778241089
H -0.978422475158127636 0.309961792125501678 1.27786960419178808
C 1.17953576480177214 -1.92531818006457622 -0.202957421998268966
H 0.225296973172035314 -2.2175465065632225 0.226502430782967945
H 1.95291456342354741 -2.59166647420579688 0.164722612812813252
H 1.10876874149981797 -2.02392839447437689 -1.28255688821405545
H -1.6410205575609722 1.02204006657637403 -0.1896091765041161
